****** HSPICE -- K-2015.06-3 linux64 (Aug  5 2015) ******
 Input File: connector_test.sp
 lic:
 lic: FLEXlm: v11.2.1
 lic: USER:   abbyha               HOSTNAME: iron-03
 lic: HOSTID: "6e5273041c26"       PID:      3103433
 lic: Using FLEXlm license file:
 lic: 27000@cadlic0.stanford.edu
 lic: Checkout 1 hspice
 lic: License/Maintenance for hspice will expire on 06-nov-2026/2024.09
 lic: 1(in_use)/200(total) FLOATING license(s) on SERVER 27000@cadlic0.stanford.edu
 lic:
 init: begin read circuit files,  cpu clock=  1.20E-01
       option search = /cad/synopsys/hspice/K-2015.06-3/hspice/parts/ad
       option search = /cad/synopsys/hspice/K-2015.06-3/hspice/parts/ad
       option search = /cad/synopsys/hspice/K-2015.06-3/hspice/parts/be
                         have
       option search = /cad/synopsys/hspice/K-2015.06-3/hspice/parts/bj
                         t
       option search = /cad/synopsys/hspice/K-2015.06-3/hspice/parts/bu
                         rr_brn
       option search = /cad/synopsys/hspice/K-2015.06-3/hspice/parts/co
                         mlinear
       option search = /cad/synopsys/hspice/K-2015.06-3/hspice/parts/di
                         o
       option search = /cad/synopsys/hspice/K-2015.06-3/hspice/parts/fe
                         t
       option search = /cad/synopsys/hspice/K-2015.06-3/hspice/parts/li
                         n_tech
       option search = /cad/synopsys/hspice/K-2015.06-3/hspice/parts/pc
                         i
       option search = /cad/synopsys/hspice/K-2015.06-3/hspice/parts/si
                         gnet
       option search = /cad/synopsys/hspice/K-2015.06-3/hspice/parts/ti
       option search = /cad/synopsys/hspice/K-2015.06-3/hspice/parts/tl
                         ine
       option search = /cad/synopsys/hspice/K-2015.06-3/hspice/parts/xi
                         linx
       option runlvl
       option post =     1.00
       option accurate
 init: end read circuit files,  cpu clock=  1.20E-01 peak memory=       186 mb
 init: begin check errors,  cpu clock=  1.20E-01
 init: end check errors,  cpu clock=  5.20E-01 peak memory=       218 mb
 init: begin setup matrix, pivot=     0 cpu clock=  5.20E-01
       establish matrix -- done,  cpu clock=  5.20E-01 peak memory=       218 mb
       re-order matrix -- done,  cpu clock=  5.20E-01 peak memory=       218 mb
 init: end setup matrix,  cpu clock=  5.20E-01 peak memory=       218 mb
 dcop: begin dcop,  cpu clock=  5.20E-01
 dcop: end dcop,  cpu clock=  5.30E-01 peak memory=       218 mb  tot_iter=       4
 output: connector_test.tr0
 sweep: tran tran0    begin, stop_t=  3.00E-09 #sweeps=3001 cpu clock=  5.40E-01
 tran: time= 3.1195E-10 tot_iter=      42 conv_iter=      21 cpu clock= 6.00E-01
 tran: time= 6.0787E-10 tot_iter=     110 conv_iter=      55 cpu clock= 6.10E-01
 tran: time= 9.0974E-10 tot_iter=     200 conv_iter=     100 cpu clock= 6.20E-01
 tran: time= 1.2026E-09 tot_iter=     300 conv_iter=     150 cpu clock= 6.30E-01
 tran: time= 1.5083E-09 tot_iter=     392 conv_iter=     196 cpu clock= 6.40E-01
 tran: time= 1.8042E-09 tot_iter=     456 conv_iter=     228 cpu clock= 6.50E-01
 tran: time= 2.1011E-09 tot_iter=     502 conv_iter=     251 cpu clock= 6.60E-01
 tran: time= 2.4047E-09 tot_iter=     528 conv_iter=     264 cpu clock= 6.60E-01
 tran: time= 2.7047E-09 tot_iter=     548 conv_iter=     274 cpu clock= 6.70E-01
 tran: time= 3.0000E-09 tot_iter=     570 conv_iter=     285 cpu clock= 6.70E-01
 sweep: tran tran0    end,  cpu clock=  6.70E-01 peak memory=       213 mb
>info:         ***** hspice job concluded
 lic: Release hspice token(s)
