****** HSPICE -- K-2015.06-3 linux64 (Aug  5 2015) ******
 Input File: xcede_4x8ortho_test.sp
 lic:
 lic: FLEXlm: v11.2.1
 lic: USER:   abbyha               HOSTNAME: iron-03
 lic: HOSTID: "6e5273041c26"       PID:      2789692
 lic: Using FLEXlm license file:
 lic: 27000@cadlic0.stanford.edu
 lic: Checkout 1 hspice
 lic: License/Maintenance for hspice will expire on 06-nov-2026/2024.09
 lic: 1(in_use)/200(total) FLOATING license(s) on SERVER 27000@cadlic0.stanford.edu
 lic:
 init: begin read circuit files,  cpu clock=  1.30E-01
       option search = /cad/synopsys/hspice/K-2015.06-3/hspice/parts/ad
       option search = /cad/synopsys/hspice/K-2015.06-3/hspice/parts/ad
       option search = /cad/synopsys/hspice/K-2015.06-3/hspice/parts/be
                         have
       option search = /cad/synopsys/hspice/K-2015.06-3/hspice/parts/bj
                         t
       option search = /cad/synopsys/hspice/K-2015.06-3/hspice/parts/bu
                         rr_brn
       option search = /cad/synopsys/hspice/K-2015.06-3/hspice/parts/co
                         mlinear
       option search = /cad/synopsys/hspice/K-2015.06-3/hspice/parts/di
                         o
       option search = /cad/synopsys/hspice/K-2015.06-3/hspice/parts/fe
                         t
       option search = /cad/synopsys/hspice/K-2015.06-3/hspice/parts/li
                         n_tech
       option search = /cad/synopsys/hspice/K-2015.06-3/hspice/parts/pc
                         i
       option search = /cad/synopsys/hspice/K-2015.06-3/hspice/parts/si
                         gnet
       option search = /cad/synopsys/hspice/K-2015.06-3/hspice/parts/ti
       option search = /cad/synopsys/hspice/K-2015.06-3/hspice/parts/tl
                         ine
       option search = /cad/synopsys/hspice/K-2015.06-3/hspice/parts/xi
                         linx
       option runlvl
       option post
       option accurate =     1.00
 init: end read circuit files,  cpu clock=  1.40E-01 peak memory=       186 mb
 init: begin check errors,  cpu clock=  1.40E-01
 init: end check errors,  cpu clock=  5.30E-01 peak memory=       219 mb
 init: begin setup matrix, pivot=     0 cpu clock=  5.30E-01
       establish matrix -- done,  cpu clock=  5.30E-01 peak memory=       219 mb
       re-order matrix -- done,  cpu clock=  5.30E-01 peak memory=       219 mb
 init: end setup matrix,  cpu clock=  5.30E-01 peak memory=       219 mb
 dcop: begin dcop,  cpu clock=  5.30E-01
 dcop: end dcop,  cpu clock=  5.40E-01 peak memory=       219 mb  tot_iter=       3
 output: xcede_4x8ortho_test.tr0
 sweep: tran tran0    begin, stop_t=  3.00E-09 #sweeps=3001 cpu clock=  5.40E-01
 tran: time= 3.0335E-10 tot_iter=      40 conv_iter=      20 cpu clock= 5.80E-01
 tran: time= 6.0031E-10 tot_iter=     104 conv_iter=      52 cpu clock= 5.90E-01
 tran: time= 9.0727E-10 tot_iter=     172 conv_iter=      86 cpu clock= 5.90E-01
 tran: time= 1.2012E-09 tot_iter=     242 conv_iter=     121 cpu clock= 6.00E-01
 tran: time= 1.5066E-09 tot_iter=     320 conv_iter=     160 cpu clock= 6.00E-01
 tran: time= 1.8137E-09 tot_iter=     366 conv_iter=     183 cpu clock= 6.10E-01
 tran: time= 2.1226E-09 tot_iter=     410 conv_iter=     205 cpu clock= 6.10E-01
 tran: time= 2.4041E-09 tot_iter=     434 conv_iter=     217 cpu clock= 6.20E-01
 tran: time= 2.7199E-09 tot_iter=     456 conv_iter=     228 cpu clock= 6.20E-01
 tran: time= 3.0000E-09 tot_iter=     476 conv_iter=     238 cpu clock= 6.20E-01
 sweep: tran tran0    end,  cpu clock=  6.20E-01 peak memory=       213 mb
>info:         ***** hspice job concluded
 lic: Release hspice token(s)
